data_image0
_chemical_formula_structural       BaZrS3BaZrS3BaS
_chemical_formula_sum              "Ba3 Zr2 S7"
_cell_length_a       5
_cell_length_b       5
_cell_length_c       15
_cell_angle_alpha    101
_cell_angle_beta     101
_cell_angle_gamma    90

_space_group_name_H-M_alt    "P 1"
_space_group_IT_number       1

loop_
  _space_group_symop_operation_xyz
  'x, y, z'

loop_
  _atom_site_type_symbol
  _atom_site_label
  _atom_site_symmetry_multiplicity
  _atom_site_fract_x
  _atom_site_fract_y
  _atom_site_fract_z
  _atom_site_occupancy
  Ba  Ba1       1.0  0.50000  0.50000  0.16667  1.0000
  Zr  Zr1       1.0  0.00000  0.00000  0.00000  1.0000
  S   S1        1.0  0.50000  0.50000  0.00000  1.0000
  S   S2        1.0  0.50000  0.00000  0.16667  1.0000
  S   S3        1.0  0.00000  0.50000  0.16667  1.0000
  Ba  Ba2       1.0  0.50000  0.50000  0.83333  1.0000
  Zr  Zr2       1.0  1.00000  1.00000  0.66667  1.0000
  S   S4        1.0  0.50000  0.50000  0.66667  1.0000
  S   S5        1.0  0.50000  1.00000  0.83333  1.0000
  S   S6        1.0  1.00000  0.50000  0.83333  1.0000
  Ba  Ba3       1.0  1.00000  1.00000  0.33333  1.0000
  S   S7        1.0  0.50000  0.50000  0.33333  1.0000
