data_image0
_chemical_formula_structural       BaZrS3BaZrS3BaSBaZrS3BaZrS3BaZrS3BaZrS3BaSBaZrS3BaZrS3BaZrS3BaZrS3BaZrS3BaZrS3BaZrS3BaSBaZrS3BaZrS3BaSBaZrS3BaZrS3BaZrS3BaZrS3BaSBaZrS3BaZrS3BaZrS3BaZrS3BaZrS3BaZrS3BaZrS3BaS
_chemical_formula_sum              "Ba32 Zr26 S84"
_cell_length_a       5
_cell_length_b       5
_cell_length_c       145
_cell_angle_alpha    90
_cell_angle_beta     90
_cell_angle_gamma    90

_space_group_name_H-M_alt    "P 1"
_space_group_IT_number       1

loop_
  _space_group_symop_operation_xyz
  'x, y, z'

loop_
  _atom_site_type_symbol
  _atom_site_label
  _atom_site_symmetry_multiplicity
  _atom_site_fract_x
  _atom_site_fract_y
  _atom_site_fract_z
  _atom_site_occupancy
  Ba  Ba1       1.0  0.50000  0.50000  0.01724  1.0000
  Zr  Zr1       1.0  0.00000  0.00000  0.00000  1.0000
  S   S1        1.0  0.50000  0.00000  0.00000  1.0000
  S   S2        1.0  0.00000  0.00000  0.01724  1.0000
  S   S3        1.0  0.00000  0.50000  0.00000  1.0000
  Ba  Ba2       1.0  0.50000  0.50000  0.05172  1.0000
  Zr  Zr2       1.0  0.00000  0.00000  0.03448  1.0000
  S   S4        1.0  0.50000  0.00000  0.03448  1.0000
  S   S5        1.0  0.00000  0.00000  0.05172  1.0000
  S   S6        1.0  0.00000  0.50000  0.03448  1.0000
  Ba  Ba3       1.0  0.00000  0.00000  0.06897  1.0000
  S   S7        1.0  0.50000  0.50000  0.06897  1.0000
  Ba  Ba4       1.0  0.00000  0.00000  0.10345  1.0000
  Zr  Zr3       1.0  0.50000  0.50000  0.08621  1.0000
  S   S8        1.0  0.00000  0.50000  0.08621  1.0000
  S   S9        1.0  0.50000  0.50000  0.10345  1.0000
  S   S10       1.0  0.50000  0.00000  0.08621  1.0000
  Ba  Ba5       1.0  0.00000  0.00000  0.13793  1.0000
  Zr  Zr4       1.0  0.50000  0.50000  0.12069  1.0000
  S   S11       1.0  0.00000  0.50000  0.12069  1.0000
  S   S12       1.0  0.50000  0.50000  0.13793  1.0000
  S   S13       1.0  0.50000  0.00000  0.12069  1.0000
  Ba  Ba6       1.0  0.00000  0.00000  0.17241  1.0000
  Zr  Zr5       1.0  0.50000  0.50000  0.15517  1.0000
  S   S14       1.0  0.00000  0.50000  0.15517  1.0000
  S   S15       1.0  0.50000  0.50000  0.17241  1.0000
  S   S16       1.0  0.50000  0.00000  0.15517  1.0000
  Ba  Ba7       1.0  0.00000  0.00000  0.20690  1.0000
  Zr  Zr6       1.0  0.50000  0.50000  0.18966  1.0000
  S   S17       1.0  0.00000  0.50000  0.18966  1.0000
  S   S18       1.0  0.50000  0.50000  0.20690  1.0000
  S   S19       1.0  0.50000  0.00000  0.18966  1.0000
  Ba  Ba8       1.0  0.50000  0.50000  0.22414  1.0000
  S   S20       1.0  0.00000  0.00000  0.22414  1.0000
  Ba  Ba9       1.0  0.50000  0.50000  0.25862  1.0000
  Zr  Zr7       1.0  0.00000  0.00000  0.24138  1.0000
  S   S21       1.0  0.50000  0.00000  0.24138  1.0000
  S   S22       1.0  0.00000  0.00000  0.25862  1.0000
  S   S23       1.0  0.00000  0.50000  0.24138  1.0000
  Ba  Ba10      1.0  0.50000  0.50000  0.29310  1.0000
  Zr  Zr8       1.0  0.00000  0.00000  0.27586  1.0000
  S   S24       1.0  0.50000  0.00000  0.27586  1.0000
  S   S25       1.0  0.00000  0.00000  0.29310  1.0000
  S   S26       1.0  0.00000  0.50000  0.27586  1.0000
  Ba  Ba11      1.0  0.50000  0.50000  0.32759  1.0000
  Zr  Zr9       1.0  0.00000  0.00000  0.31034  1.0000
  S   S27       1.0  0.50000  0.00000  0.31034  1.0000
  S   S28       1.0  0.00000  0.00000  0.32759  1.0000
  S   S29       1.0  0.00000  0.50000  0.31034  1.0000
  Ba  Ba12      1.0  0.50000  0.50000  0.36207  1.0000
  Zr  Zr10      1.0  0.00000  0.00000  0.34483  1.0000
  S   S30       1.0  0.50000  0.00000  0.34483  1.0000
  S   S31       1.0  0.00000  0.00000  0.36207  1.0000
  S   S32       1.0  0.00000  0.50000  0.34483  1.0000
  Ba  Ba13      1.0  0.50000  0.50000  0.39655  1.0000
  Zr  Zr11      1.0  0.00000  0.00000  0.37931  1.0000
  S   S33       1.0  0.50000  0.00000  0.37931  1.0000
  S   S34       1.0  0.00000  0.00000  0.39655  1.0000
  S   S35       1.0  0.00000  0.50000  0.37931  1.0000
  Ba  Ba14      1.0  0.50000  0.50000  0.43103  1.0000
  Zr  Zr12      1.0  0.00000  0.00000  0.41379  1.0000
  S   S36       1.0  0.50000  0.00000  0.41379  1.0000
  S   S37       1.0  0.00000  0.00000  0.43103  1.0000
  S   S38       1.0  0.00000  0.50000  0.41379  1.0000
  Ba  Ba15      1.0  0.50000  0.50000  0.46552  1.0000
  Zr  Zr13      1.0  0.00000  0.00000  0.44828  1.0000
  S   S39       1.0  0.50000  0.00000  0.44828  1.0000
  S   S40       1.0  0.00000  0.00000  0.46552  1.0000
  S   S41       1.0  0.00000  0.50000  0.44828  1.0000
  Ba  Ba16      1.0  0.00000  0.00000  0.48276  1.0000
  S   S42       1.0  0.50000  0.50000  0.48276  1.0000
  Ba  Ba17      1.0  0.00000  0.00000  0.51724  1.0000
  Zr  Zr14      1.0  0.50000  0.50000  0.50000  1.0000
  S   S43       1.0  0.00000  0.50000  0.50000  1.0000
  S   S44       1.0  0.50000  0.50000  0.51724  1.0000
  S   S45       1.0  0.50000  0.00000  0.50000  1.0000
  Ba  Ba18      1.0  0.00000  0.00000  0.55172  1.0000
  Zr  Zr15      1.0  0.50000  0.50000  0.53448  1.0000
  S   S46       1.0  0.00000  0.50000  0.53448  1.0000
  S   S47       1.0  0.50000  0.50000  0.55172  1.0000
  S   S48       1.0  0.50000  0.00000  0.53448  1.0000
  Ba  Ba19      1.0  0.50000  0.50000  0.56897  1.0000
  S   S49       1.0  0.00000  0.00000  0.56897  1.0000
  Ba  Ba20      1.0  0.50000  0.50000  0.60345  1.0000
  Zr  Zr16      1.0  0.00000  0.00000  0.58621  1.0000
  S   S50       1.0  0.50000  0.00000  0.58621  1.0000
  S   S51       1.0  0.00000  0.00000  0.60345  1.0000
  S   S52       1.0  0.00000  0.50000  0.58621  1.0000
  Ba  Ba21      1.0  0.50000  0.50000  0.63793  1.0000
  Zr  Zr17      1.0  0.00000  0.00000  0.62069  1.0000
  S   S53       1.0  0.50000  0.00000  0.62069  1.0000
  S   S54       1.0  0.00000  0.00000  0.63793  1.0000
  S   S55       1.0  0.00000  0.50000  0.62069  1.0000
  Ba  Ba22      1.0  0.50000  0.50000  0.67241  1.0000
  Zr  Zr18      1.0  0.00000  0.00000  0.65517  1.0000
  S   S56       1.0  0.50000  0.00000  0.65517  1.0000
  S   S57       1.0  0.00000  0.00000  0.67241  1.0000
  S   S58       1.0  0.00000  0.50000  0.65517  1.0000
  Ba  Ba23      1.0  0.50000  0.50000  0.70690  1.0000
  Zr  Zr19      1.0  0.00000  0.00000  0.68966  1.0000
  S   S59       1.0  0.50000  0.00000  0.68966  1.0000
  S   S60       1.0  0.00000  0.00000  0.70690  1.0000
  S   S61       1.0  0.00000  0.50000  0.68966  1.0000
  Ba  Ba24      1.0  0.00000  0.00000  0.72414  1.0000
  S   S62       1.0  0.50000  0.50000  0.72414  1.0000
  Ba  Ba25      1.0  0.00000  0.00000  0.75862  1.0000
  Zr  Zr20      1.0  0.50000  0.50000  0.74138  1.0000
  S   S63       1.0  0.00000  0.50000  0.74138  1.0000
  S   S64       1.0  0.50000  0.50000  0.75862  1.0000
  S   S65       1.0  0.50000  0.00000  0.74138  1.0000
  Ba  Ba26      1.0  0.00000  0.00000  0.79310  1.0000
  Zr  Zr21      1.0  0.50000  0.50000  0.77586  1.0000
  S   S66       1.0  0.00000  0.50000  0.77586  1.0000
  S   S67       1.0  0.50000  0.50000  0.79310  1.0000
  S   S68       1.0  0.50000  0.00000  0.77586  1.0000
  Ba  Ba27      1.0  0.00000  0.00000  0.82759  1.0000
  Zr  Zr22      1.0  0.50000  0.50000  0.81034  1.0000
  S   S69       1.0  0.00000  0.50000  0.81034  1.0000
  S   S70       1.0  0.50000  0.50000  0.82759  1.0000
  S   S71       1.0  0.50000  0.00000  0.81034  1.0000
  Ba  Ba28      1.0  0.00000  0.00000  0.86207  1.0000
  Zr  Zr23      1.0  0.50000  0.50000  0.84483  1.0000
  S   S72       1.0  0.00000  0.50000  0.84483  1.0000
  S   S73       1.0  0.50000  0.50000  0.86207  1.0000
  S   S74       1.0  0.50000  0.00000  0.84483  1.0000
  Ba  Ba29      1.0  0.00000  0.00000  0.89655  1.0000
  Zr  Zr24      1.0  0.50000  0.50000  0.87931  1.0000
  S   S75       1.0  0.00000  0.50000  0.87931  1.0000
  S   S76       1.0  0.50000  0.50000  0.89655  1.0000
  S   S77       1.0  0.50000  0.00000  0.87931  1.0000
  Ba  Ba30      1.0  0.00000  0.00000  0.93103  1.0000
  Zr  Zr25      1.0  0.50000  0.50000  0.91379  1.0000
  S   S78       1.0  0.00000  0.50000  0.91379  1.0000
  S   S79       1.0  0.50000  0.50000  0.93103  1.0000
  S   S80       1.0  0.50000  0.00000  0.91379  1.0000
  Ba  Ba31      1.0  0.00000  0.00000  0.96552  1.0000
  Zr  Zr26      1.0  0.50000  0.50000  0.94828  1.0000
  S   S81       1.0  0.00000  0.50000  0.94828  1.0000
  S   S82       1.0  0.50000  0.50000  0.96552  1.0000
  S   S83       1.0  0.50000  0.00000  0.94828  1.0000
  Ba  Ba32      1.0  0.50000  0.50000  0.98276  1.0000
  S   S84       1.0  0.00000  0.00000  0.98276  1.0000
