data_image0
_chemical_formula_structural       BaZrS3BaZrS3BaZrS3BaSBaZrS3BaZrS3BaZrS3BaZrS3BaZrS3BaS
_chemical_formula_sum              "Ba10 Zr8 S26"
_cell_length_a       5
_cell_length_b       5
_cell_length_c       45
_cell_angle_alpha    90
_cell_angle_beta     90
_cell_angle_gamma    90

_space_group_name_H-M_alt    "P 1"
_space_group_IT_number       1

loop_
  _space_group_symop_operation_xyz
  'x, y, z'

loop_
  _atom_site_type_symbol
  _atom_site_label
  _atom_site_symmetry_multiplicity
  _atom_site_fract_x
  _atom_site_fract_y
  _atom_site_fract_z
  _atom_site_occupancy
  Ba  Ba1       1.0  0.50000  0.50000  0.05556  1.0000
  Zr  Zr1       1.0  0.00000  0.00000  0.00000  1.0000
  S   S1        1.0  0.50000  0.00000  0.00000  1.0000
  S   S2        1.0  0.00000  0.00000  0.05556  1.0000
  S   S3        1.0  0.00000  0.50000  0.00000  1.0000
  Ba  Ba2       1.0  0.50000  0.50000  0.16667  1.0000
  Zr  Zr2       1.0  0.00000  0.00000  0.11111  1.0000
  S   S4        1.0  0.50000  0.00000  0.11111  1.0000
  S   S5        1.0  0.00000  0.00000  0.16667  1.0000
  S   S6        1.0  0.00000  0.50000  0.11111  1.0000
  Ba  Ba3       1.0  0.50000  0.50000  0.27778  1.0000
  Zr  Zr3       1.0  0.00000  0.00000  0.22222  1.0000
  S   S7        1.0  0.50000  0.00000  0.22222  1.0000
  S   S8        1.0  0.00000  0.00000  0.27778  1.0000
  S   S9        1.0  0.00000  0.50000  0.22222  1.0000
  Ba  Ba4       1.0  0.00000  0.00000  0.33333  1.0000
  S   S10       1.0  0.50000  0.50000  0.33333  1.0000
  Ba  Ba5       1.0  0.00000  0.00000  0.44444  1.0000
  Zr  Zr4       1.0  0.50000  0.50000  0.38889  1.0000
  S   S11       1.0  0.00000  0.50000  0.38889  1.0000
  S   S12       1.0  0.50000  0.50000  0.44444  1.0000
  S   S13       1.0  0.50000  0.00000  0.38889  1.0000
  Ba  Ba6       1.0  0.00000  0.00000  0.55556  1.0000
  Zr  Zr5       1.0  0.50000  0.50000  0.50000  1.0000
  S   S14       1.0  0.00000  0.50000  0.50000  1.0000
  S   S15       1.0  0.50000  0.50000  0.55556  1.0000
  S   S16       1.0  0.50000  0.00000  0.50000  1.0000
  Ba  Ba7       1.0  0.00000  0.00000  0.66667  1.0000
  Zr  Zr6       1.0  0.50000  0.50000  0.61111  1.0000
  S   S17       1.0  0.00000  0.50000  0.61111  1.0000
  S   S18       1.0  0.50000  0.50000  0.66667  1.0000
  S   S19       1.0  0.50000  0.00000  0.61111  1.0000
  Ba  Ba8       1.0  0.00000  0.00000  0.77778  1.0000
  Zr  Zr7       1.0  0.50000  0.50000  0.72222  1.0000
  S   S20       1.0  0.00000  0.50000  0.72222  1.0000
  S   S21       1.0  0.50000  0.50000  0.77778  1.0000
  S   S22       1.0  0.50000  0.00000  0.72222  1.0000
  Ba  Ba9       1.0  0.00000  0.00000  0.88889  1.0000
  Zr  Zr8       1.0  0.50000  0.50000  0.83333  1.0000
  S   S23       1.0  0.00000  0.50000  0.83333  1.0000
  S   S24       1.0  0.50000  0.50000  0.88889  1.0000
  S   S25       1.0  0.50000  0.00000  0.83333  1.0000
  Ba  Ba10      1.0  0.50000  0.50000  0.94444  1.0000
  S   S26       1.0  0.00000  0.00000  0.94444  1.0000
