data_image0
_chemical_formula_structural       BaZrS3BaZrS3BaZrS3BaZrS3BaZrS3BaZrS3BaZrS3BaSBaZrS3BaZrS3BaZrS3BaSBaZrS3BaZrS3BaSBaZrS3BaZrS3BaZrS3BaZrS3BaZrS3BaZrS3BaZrS3BaSBaZrS3BaZrS3BaZrS3BaSBaZrS3BaZrS3BaS
_chemical_formula_sum              "Ba30 Zr24 S78"
_cell_length_a       5
_cell_length_b       5
_cell_length_c       135
_cell_angle_alpha    90
_cell_angle_beta     90
_cell_angle_gamma    90

_space_group_name_H-M_alt    "P 1"
_space_group_IT_number       1

loop_
  _space_group_symop_operation_xyz
  'x, y, z'

loop_
  _atom_site_type_symbol
  _atom_site_label
  _atom_site_symmetry_multiplicity
  _atom_site_fract_x
  _atom_site_fract_y
  _atom_site_fract_z
  _atom_site_occupancy
  Ba  Ba1       1.0  0.50000  0.50000  0.01852  1.0000
  Zr  Zr1       1.0  0.00000  0.00000  0.00000  1.0000
  S   S1        1.0  0.50000  0.00000  0.00000  1.0000
  S   S2        1.0  0.00000  0.00000  0.01852  1.0000
  S   S3        1.0  0.00000  0.50000  0.00000  1.0000
  Ba  Ba2       1.0  0.50000  0.50000  0.05556  1.0000
  Zr  Zr2       1.0  0.00000  0.00000  0.03704  1.0000
  S   S4        1.0  0.50000  0.00000  0.03704  1.0000
  S   S5        1.0  0.00000  0.00000  0.05556  1.0000
  S   S6        1.0  0.00000  0.50000  0.03704  1.0000
  Ba  Ba3       1.0  0.50000  0.50000  0.09259  1.0000
  Zr  Zr3       1.0  0.00000  0.00000  0.07407  1.0000
  S   S7        1.0  0.50000  0.00000  0.07407  1.0000
  S   S8        1.0  0.00000  0.00000  0.09259  1.0000
  S   S9        1.0  0.00000  0.50000  0.07407  1.0000
  Ba  Ba4       1.0  0.50000  0.50000  0.12963  1.0000
  Zr  Zr4       1.0  0.00000  0.00000  0.11111  1.0000
  S   S10       1.0  0.50000  0.00000  0.11111  1.0000
  S   S11       1.0  0.00000  0.00000  0.12963  1.0000
  S   S12       1.0  0.00000  0.50000  0.11111  1.0000
  Ba  Ba5       1.0  0.50000  0.50000  0.16667  1.0000
  Zr  Zr5       1.0  0.00000  0.00000  0.14815  1.0000
  S   S13       1.0  0.50000  0.00000  0.14815  1.0000
  S   S14       1.0  0.00000  0.00000  0.16667  1.0000
  S   S15       1.0  0.00000  0.50000  0.14815  1.0000
  Ba  Ba6       1.0  0.50000  0.50000  0.20370  1.0000
  Zr  Zr6       1.0  0.00000  0.00000  0.18519  1.0000
  S   S16       1.0  0.50000  0.00000  0.18519  1.0000
  S   S17       1.0  0.00000  0.00000  0.20370  1.0000
  S   S18       1.0  0.00000  0.50000  0.18519  1.0000
  Ba  Ba7       1.0  0.50000  0.50000  0.24074  1.0000
  Zr  Zr7       1.0  0.00000  0.00000  0.22222  1.0000
  S   S19       1.0  0.50000  0.00000  0.22222  1.0000
  S   S20       1.0  0.00000  0.00000  0.24074  1.0000
  S   S21       1.0  0.00000  0.50000  0.22222  1.0000
  Ba  Ba8       1.0  0.00000  0.00000  0.25926  1.0000
  S   S22       1.0  0.50000  0.50000  0.25926  1.0000
  Ba  Ba9       1.0  0.00000  0.00000  0.29630  1.0000
  Zr  Zr8       1.0  0.50000  0.50000  0.27778  1.0000
  S   S23       1.0  0.00000  0.50000  0.27778  1.0000
  S   S24       1.0  0.50000  0.50000  0.29630  1.0000
  S   S25       1.0  0.50000  0.00000  0.27778  1.0000
  Ba  Ba10      1.0  0.00000  0.00000  0.33333  1.0000
  Zr  Zr9       1.0  0.50000  0.50000  0.31481  1.0000
  S   S26       1.0  0.00000  0.50000  0.31481  1.0000
  S   S27       1.0  0.50000  0.50000  0.33333  1.0000
  S   S28       1.0  0.50000  0.00000  0.31481  1.0000
  Ba  Ba11      1.0  0.00000  0.00000  0.37037  1.0000
  Zr  Zr10      1.0  0.50000  0.50000  0.35185  1.0000
  S   S29       1.0  0.00000  0.50000  0.35185  1.0000
  S   S30       1.0  0.50000  0.50000  0.37037  1.0000
  S   S31       1.0  0.50000  0.00000  0.35185  1.0000
  Ba  Ba12      1.0  0.50000  0.50000  0.38889  1.0000
  S   S32       1.0  0.00000  0.00000  0.38889  1.0000
  Ba  Ba13      1.0  0.50000  0.50000  0.42593  1.0000
  Zr  Zr11      1.0  0.00000  0.00000  0.40741  1.0000
  S   S33       1.0  0.50000  0.00000  0.40741  1.0000
  S   S34       1.0  0.00000  0.00000  0.42593  1.0000
  S   S35       1.0  0.00000  0.50000  0.40741  1.0000
  Ba  Ba14      1.0  0.50000  0.50000  0.46296  1.0000
  Zr  Zr12      1.0  0.00000  0.00000  0.44444  1.0000
  S   S36       1.0  0.50000  0.00000  0.44444  1.0000
  S   S37       1.0  0.00000  0.00000  0.46296  1.0000
  S   S38       1.0  0.00000  0.50000  0.44444  1.0000
  Ba  Ba15      1.0  0.00000  0.00000  0.48148  1.0000
  S   S39       1.0  0.50000  0.50000  0.48148  1.0000
  Ba  Ba16      1.0  0.00000  0.00000  0.51852  1.0000
  Zr  Zr13      1.0  0.50000  0.50000  0.50000  1.0000
  S   S40       1.0  0.00000  0.50000  0.50000  1.0000
  S   S41       1.0  0.50000  0.50000  0.51852  1.0000
  S   S42       1.0  0.50000  0.00000  0.50000  1.0000
  Ba  Ba17      1.0  0.00000  0.00000  0.55556  1.0000
  Zr  Zr14      1.0  0.50000  0.50000  0.53704  1.0000
  S   S43       1.0  0.00000  0.50000  0.53704  1.0000
  S   S44       1.0  0.50000  0.50000  0.55556  1.0000
  S   S45       1.0  0.50000  0.00000  0.53704  1.0000
  Ba  Ba18      1.0  0.00000  0.00000  0.59259  1.0000
  Zr  Zr15      1.0  0.50000  0.50000  0.57407  1.0000
  S   S46       1.0  0.00000  0.50000  0.57407  1.0000
  S   S47       1.0  0.50000  0.50000  0.59259  1.0000
  S   S48       1.0  0.50000  0.00000  0.57407  1.0000
  Ba  Ba19      1.0  0.00000  0.00000  0.62963  1.0000
  Zr  Zr16      1.0  0.50000  0.50000  0.61111  1.0000
  S   S49       1.0  0.00000  0.50000  0.61111  1.0000
  S   S50       1.0  0.50000  0.50000  0.62963  1.0000
  S   S51       1.0  0.50000  0.00000  0.61111  1.0000
  Ba  Ba20      1.0  0.00000  0.00000  0.66667  1.0000
  Zr  Zr17      1.0  0.50000  0.50000  0.64815  1.0000
  S   S52       1.0  0.00000  0.50000  0.64815  1.0000
  S   S53       1.0  0.50000  0.50000  0.66667  1.0000
  S   S54       1.0  0.50000  0.00000  0.64815  1.0000
  Ba  Ba21      1.0  0.00000  0.00000  0.70370  1.0000
  Zr  Zr18      1.0  0.50000  0.50000  0.68519  1.0000
  S   S55       1.0  0.00000  0.50000  0.68519  1.0000
  S   S56       1.0  0.50000  0.50000  0.70370  1.0000
  S   S57       1.0  0.50000  0.00000  0.68519  1.0000
  Ba  Ba22      1.0  0.00000  0.00000  0.74074  1.0000
  Zr  Zr19      1.0  0.50000  0.50000  0.72222  1.0000
  S   S58       1.0  0.00000  0.50000  0.72222  1.0000
  S   S59       1.0  0.50000  0.50000  0.74074  1.0000
  S   S60       1.0  0.50000  0.00000  0.72222  1.0000
  Ba  Ba23      1.0  0.50000  0.50000  0.75926  1.0000
  S   S61       1.0  0.00000  0.00000  0.75926  1.0000
  Ba  Ba24      1.0  0.50000  0.50000  0.79630  1.0000
  Zr  Zr20      1.0  0.00000  0.00000  0.77778  1.0000
  S   S62       1.0  0.50000  0.00000  0.77778  1.0000
  S   S63       1.0  0.00000  0.00000  0.79630  1.0000
  S   S64       1.0  0.00000  0.50000  0.77778  1.0000
  Ba  Ba25      1.0  0.50000  0.50000  0.83333  1.0000
  Zr  Zr21      1.0  0.00000  0.00000  0.81481  1.0000
  S   S65       1.0  0.50000  0.00000  0.81481  1.0000
  S   S66       1.0  0.00000  0.00000  0.83333  1.0000
  S   S67       1.0  0.00000  0.50000  0.81481  1.0000
  Ba  Ba26      1.0  0.50000  0.50000  0.87037  1.0000
  Zr  Zr22      1.0  0.00000  0.00000  0.85185  1.0000
  S   S68       1.0  0.50000  0.00000  0.85185  1.0000
  S   S69       1.0  0.00000  0.00000  0.87037  1.0000
  S   S70       1.0  0.00000  0.50000  0.85185  1.0000
  Ba  Ba27      1.0  0.00000  0.00000  0.88889  1.0000
  S   S71       1.0  0.50000  0.50000  0.88889  1.0000
  Ba  Ba28      1.0  0.00000  0.00000  0.92593  1.0000
  Zr  Zr23      1.0  0.50000  0.50000  0.90741  1.0000
  S   S72       1.0  0.00000  0.50000  0.90741  1.0000
  S   S73       1.0  0.50000  0.50000  0.92593  1.0000
  S   S74       1.0  0.50000  0.00000  0.90741  1.0000
  Ba  Ba29      1.0  0.00000  0.00000  0.96296  1.0000
  Zr  Zr24      1.0  0.50000  0.50000  0.94444  1.0000
  S   S75       1.0  0.00000  0.50000  0.94444  1.0000
  S   S76       1.0  0.50000  0.50000  0.96296  1.0000
  S   S77       1.0  0.50000  0.00000  0.94444  1.0000
  Ba  Ba30      1.0  0.50000  0.50000  0.98148  1.0000
  S   S78       1.0  0.00000  0.00000  0.98148  1.0000
