data_image0
_chemical_formula_structural       BaZrS3BaZrS3BaZrS3BaZrS3BaZrS3BaZrS3BaZrS3BaZrS3BaSBaZrS3BaZrS3BaZrS3BaZrS3BaZrS3BaZrS3BaZrS3BaZrS3BaS
_chemical_formula_sum              "Ba18 Zr16 S50"
_cell_length_a       5
_cell_length_b       5
_cell_length_c       85
_cell_angle_alpha    90
_cell_angle_beta     90
_cell_angle_gamma    90

_space_group_name_H-M_alt    "P 1"
_space_group_IT_number       1

loop_
  _space_group_symop_operation_xyz
  'x, y, z'

loop_
  _atom_site_type_symbol
  _atom_site_label
  _atom_site_symmetry_multiplicity
  _atom_site_fract_x
  _atom_site_fract_y
  _atom_site_fract_z
  _atom_site_occupancy
  Ba  Ba1       1.0  0.50650  0.49755  0.02929  1.0000
  Zr  Zr1       1.0  0.99571  0.00346  0.99946  1.0000
  S   S1        1.0  0.50698  0.99696  0.00008  1.0000
  S   S2        1.0  0.99900  0.00585  0.02893  1.0000
  S   S3        1.0  0.99871  0.49846  0.00027  1.0000
  Ba  Ba2       1.0  0.49560  0.49931  0.08803  1.0000
  Zr  Zr2       1.0  0.00017  0.00233  0.05856  1.0000
  S   S4        1.0  0.50458  0.00361  0.05894  1.0000
  S   S5        1.0  0.00360  0.99727  0.08821  1.0000
  S   S6        1.0  0.99626  0.49893  0.05895  1.0000
  Ba  Ba3       1.0  0.49723  0.49841  0.14690  1.0000
  Zr  Zr3       1.0  0.99662  0.99732  0.11764  1.0000
  S   S7        1.0  0.49553  0.00094  0.11804  1.0000
  S   S8        1.0  0.00297  0.99923  0.14685  1.0000
  S   S9        1.0  0.99701  0.50677  0.11766  1.0000
  Ba  Ba4       1.0  0.49745  0.50076  0.20638  1.0000
  Zr  Zr4       1.0  0.00048  0.00247  0.17654  1.0000
  S   S10       1.0  0.49859  0.99543  0.17639  1.0000
  S   S11       1.0  0.99916  0.00235  0.20608  1.0000
  S   S12       1.0  0.00372  0.50114  0.17668  1.0000
  Ba  Ba5       1.0  0.49698  0.50501  0.26483  1.0000
  Zr  Zr5       1.0  0.99881  0.00195  0.23528  1.0000
  S   S13       1.0  0.50453  0.00608  0.23581  1.0000
  S   S14       1.0  0.99441  0.99422  0.26459  1.0000
  S   S15       1.0  0.00064  0.50350  0.23537  1.0000
  Ba  Ba6       1.0  0.49191  0.49878  0.32372  1.0000
  Zr  Zr6       1.0  0.00092  0.00305  0.29407  1.0000
  S   S16       1.0  0.49920  0.00075  0.29421  1.0000
  S   S17       1.0  0.00079  0.00048  0.32337  1.0000
  S   S18       1.0  0.00151  0.50049  0.29438  1.0000
  Ba  Ba7       1.0  0.50480  0.50074  0.38226  1.0000
  Zr  Zr7       1.0  0.99745  0.00169  0.35296  1.0000
  S   S19       1.0  0.49862  0.00017  0.35280  1.0000
  S   S20       1.0  0.00279  0.99821  0.38264  1.0000
  S   S21       1.0  0.00161  0.50237  0.35268  1.0000
  Ba  Ba8       1.0  0.50068  0.50296  0.44095  1.0000
  Zr  Zr8       1.0  0.99894  0.00013  0.41144  1.0000
  S   S22       1.0  0.50126  0.00338  0.41156  1.0000
  S   S23       1.0  0.00140  0.99475  0.44117  1.0000
  S   S24       1.0  0.99354  0.50449  0.41186  1.0000
  Ba  Ba9       1.0  0.99990  0.99690  0.47089  1.0000
  S   S25       1.0  0.50787  0.49257  0.47088  1.0000
  Ba  Ba10      1.0  0.00651  0.00135  0.52913  1.0000
  Zr  Zr9       1.0  0.50345  0.49928  0.49986  1.0000
  S   S26       1.0  0.99508  0.50220  0.50019  1.0000
  S   S27       1.0  0.49751  0.50208  0.52914  1.0000
  S   S28       1.0  0.50321  0.00019  0.49996  1.0000
  Ba  Ba11      1.0  0.99959  0.00348  0.58841  1.0000
  Zr  Zr10      1.0  0.50212  0.50055  0.55884  1.0000
  S   S29       1.0  0.00247  0.50093  0.55898  1.0000
  S   S30       1.0  0.49876  0.49026  0.58848  1.0000
  S   S31       1.0  0.50875  0.00177  0.55880  1.0000
  Ba  Ba12      1.0  0.99945  0.99952  0.64706  1.0000
  Zr  Zr11      1.0  0.49551  0.49793  0.61741  1.0000
  S   S32       1.0  0.00100  0.49881  0.61776  1.0000
  S   S33       1.0  0.49930  0.50395  0.64711  1.0000
  S   S34       1.0  0.50876  0.99241  0.61749  1.0000
  Ba  Ba13      1.0  0.00361  0.01011  0.70582  1.0000
  Zr  Zr12      1.0  0.50017  0.49909  0.67678  1.0000
  S   S35       1.0  0.99885  0.50272  0.67640  1.0000
  S   S36       1.0  0.49491  0.50125  0.70600  1.0000
  S   S37       1.0  0.50517  0.99956  0.67633  1.0000
  Ba  Ba14      1.0  0.00225  0.00096  0.76477  1.0000
  Zr  Zr13      1.0  0.49971  0.50464  0.73538  1.0000
  S   S38       1.0  0.00762  0.50444  0.73545  1.0000
  S   S39       1.0  0.49349  0.50241  0.76480  1.0000
  S   S40       1.0  0.50324  0.00418  0.73520  1.0000
  Ba  Ba15      1.0  0.00330  0.99775  0.82399  1.0000
  Zr  Zr14      1.0  0.49467  0.49296  0.79373  1.0000
  S   S41       1.0  0.99644  0.49552  0.79458  1.0000
  S   S42       1.0  0.49869  0.49463  0.82379  1.0000
  S   S43       1.0  0.49765  0.99505  0.79432  1.0000
  Ba  Ba16      1.0  0.00249  0.99826  0.88268  1.0000
  Zr  Zr15      1.0  0.50052  0.50647  0.85306  1.0000
  S   S44       1.0  0.00624  0.50044  0.85265  1.0000
  S   S45       1.0  0.50980  0.49782  0.88231  1.0000
  S   S46       1.0  0.49720  0.99919  0.85300  1.0000
  Ba  Ba17      1.0  0.00081  0.00264  0.94160  1.0000
  Zr  Zr16      1.0  0.49952  0.49507  0.91149  1.0000
  S   S47       1.0  0.99734  0.49330  0.91196  1.0000
  S   S48       1.0  0.49801  0.49876  0.94118  1.0000
  S   S49       1.0  0.49441  0.99655  0.91192  1.0000
  Ba  Ba18      1.0  0.50247  0.49823  0.97101  1.0000
  S   S50       1.0  0.99478  0.99862  0.97053  1.0000
