data_image0
_chemical_formula_structural       BaZrS3BaZrS3BaZrS3BaZrS3BaZrS3BaZrS3BaZrS3BaZrS3BaS
_chemical_formula_sum              "Ba9 Zr8 S25"
_cell_length_a       5.0
_cell_length_b       5.0
_cell_length_c       42.5
_cell_angle_alpha    90.0
_cell_angle_beta     90.0
_cell_angle_gamma    90.0

_space_group_name_H-M_alt    "P 1"
_space_group_IT_number       1

loop_
  _space_group_symop_operation_xyz
  'x, y, z'

loop_
  _atom_site_type_symbol
  _atom_site_label
  _atom_site_symmetry_multiplicity
  _atom_site_fract_x
  _atom_site_fract_y
  _atom_site_fract_z
  _atom_site_occupancy
  Ba  Ba1       1.0  0.5  0.5  0.058823529411764705  1.0000
  Zr  Zr1       1.0  0.0  0.0  0.0  1.0000
  S   S1        1.0  0.5  0.0  0.0  1.0000
  S   S2        1.0  0.0  0.0  0.058823529411764705  1.0000
  S   S3        1.0  0.0  0.5  0.0  1.0000
  Ba  Ba2       1.0  0.5  0.5  0.1764705882352941  1.0000
  Zr  Zr2       1.0  0.0  0.0  0.11764705882352941  1.0000
  S   S4        1.0  0.5  0.0  0.11764705882352941  1.0000
  S   S5        1.0  0.0  0.0  0.1764705882352941  1.0000
  S   S6        1.0  0.0  0.5  0.11764705882352941  1.0000
  Ba  Ba3       1.0  0.5  0.5  0.29411764705882354  1.0000
  Zr  Zr3       1.0  0.0  0.0  0.23529411764705882  1.0000
  S   S7        1.0  0.5  0.0  0.23529411764705882  1.0000
  S   S8        1.0  0.0  0.0  0.29411764705882354  1.0000
  S   S9        1.0  0.0  0.5  0.23529411764705882  1.0000
  Ba  Ba4       1.0  0.5  0.5  0.4117647058823529  1.0000
  Zr  Zr4       1.0  0.0  0.0  0.3529411764705882  1.0000
  S   S10       1.0  0.5  0.0  0.3529411764705882  1.0000
  S   S11       1.0  0.0  0.0  0.4117647058823529  1.0000
  S   S12       1.0  0.0  0.5  0.3529411764705882  1.0000
  Ba  Ba5       1.0  0.5  0.5  0.5294117647058824  1.0000
  Zr  Zr5       1.0  0.0  0.0  0.47058823529411764  1.0000
  S   S13       1.0  0.5  0.0  0.47058823529411764  1.0000
  S   S14       1.0  0.0  0.0  0.5294117647058824  1.0000
  S   S15       1.0  0.0  0.5  0.47058823529411764  1.0000
  Ba  Ba6       1.0  0.5  0.5  0.6470588235294118  1.0000
  Zr  Zr6       1.0  0.0  0.0  0.5882352941176471  1.0000
  S   S16       1.0  0.5  0.0  0.5882352941176471  1.0000
  S   S17       1.0  0.0  0.0  0.6470588235294118  1.0000
  S   S18       1.0  0.0  0.5  0.5882352941176471  1.0000
  Ba  Ba7       1.0  0.5  0.5  0.7647058823529411  1.0000
  Zr  Zr7       1.0  0.0  0.0  0.7058823529411764  1.0000
  S   S19       1.0  0.5  0.0  0.7058823529411764  1.0000
  S   S20       1.0  0.0  0.0  0.7647058823529411  1.0000
  S   S21       1.0  0.0  0.5  0.7058823529411764  1.0000
  Ba  Ba8       1.0  0.5  0.5  0.8823529411764706  1.0000
  Zr  Zr8       1.0  0.0  0.0  0.8235294117647058  1.0000
  S   S22       1.0  0.5  0.0  0.8235294117647058  1.0000
  S   S23       1.0  0.0  0.0  0.8823529411764706  1.0000
  S   S24       1.0  0.0  0.5  0.8235294117647058  1.0000
  Ba  Ba9       1.0  0.0  0.0  0.9411764705882353  1.0000
  S   S25       1.0  0.5  0.5  0.9411764705882353  1.0000
