data_image0
_chemical_formula_structural       BaZrS3BaSBaZrS3BaZrS3BaZrS3BaZrS3BaZrS3BaZrS3BaZrS3BaZrS3BaSBaZrS3BaZrS3BaZrS3BaZrS3BaZrS3BaZrS3BaZrS3
_chemical_formula_sum              "Ba18 Zr16 S50"
_cell_length_a       5.0
_cell_length_b       5.0
_cell_length_c       85.0
_cell_angle_alpha    90.0
_cell_angle_beta     90.0
_cell_angle_gamma    90.0

_space_group_name_H-M_alt    "P 1"
_space_group_IT_number       1

loop_
  _space_group_symop_operation_xyz
  'x, y, z'

loop_
  _atom_site_type_symbol
  _atom_site_label
  _atom_site_symmetry_multiplicity
  _atom_site_fract_x
  _atom_site_fract_y
  _atom_site_fract_z
  _atom_site_occupancy
  Ba  Ba1       1.0  0.5  0.5  0.029411764705882353  1.0000
  Zr  Zr1       1.0  0.0  0.0  0.0  1.0000
  S   S1        1.0  0.5  0.0  0.0  1.0000
  S   S2        1.0  0.0  0.0  0.029411764705882353  1.0000
  S   S3        1.0  0.0  0.5  0.0  1.0000
  Ba  Ba2       1.0  0.0  0.0  0.058823529411764705  1.0000
  S   S4        1.0  0.5  0.5  0.058823529411764705  1.0000
  Ba  Ba3       1.0  0.0  0.0  0.11764705882352941  1.0000
  Zr  Zr2       1.0  0.5  0.5  0.08823529411764705  1.0000
  S   S5        1.0  0.0  0.5  0.08823529411764705  1.0000
  S   S6        1.0  0.5  0.5  0.11764705882352941  1.0000
  S   S7        1.0  0.5  0.0  0.08823529411764705  1.0000
  Ba  Ba4       1.0  0.0  0.0  0.1764705882352941  1.0000
  Zr  Zr3       1.0  0.5  0.5  0.14705882352941177  1.0000
  S   S8        1.0  0.0  0.5  0.14705882352941177  1.0000
  S   S9        1.0  0.5  0.5  0.1764705882352941  1.0000
  S   S10       1.0  0.5  0.0  0.14705882352941177  1.0000
  Ba  Ba5       1.0  0.0  0.0  0.23529411764705882  1.0000
  Zr  Zr4       1.0  0.5  0.5  0.20588235294117646  1.0000
  S   S11       1.0  0.0  0.5  0.20588235294117646  1.0000
  S   S12       1.0  0.5  0.5  0.23529411764705882  1.0000
  S   S13       1.0  0.5  0.0  0.20588235294117646  1.0000
  Ba  Ba6       1.0  0.0  0.0  0.29411764705882354  1.0000
  Zr  Zr5       1.0  0.5  0.5  0.2647058823529412  1.0000
  S   S14       1.0  0.0  0.5  0.2647058823529412  1.0000
  S   S15       1.0  0.5  0.5  0.29411764705882354  1.0000
  S   S16       1.0  0.5  0.0  0.2647058823529412  1.0000
  Ba  Ba7       1.0  0.0  0.0  0.3529411764705882  1.0000
  Zr  Zr6       1.0  0.5  0.5  0.3235294117647059  1.0000
  S   S17       1.0  0.0  0.5  0.3235294117647059  1.0000
  S   S18       1.0  0.5  0.5  0.3529411764705882  1.0000
  S   S19       1.0  0.5  0.0  0.3235294117647059  1.0000
  Ba  Ba8       1.0  0.0  0.0  0.4117647058823529  1.0000
  Zr  Zr7       1.0  0.5  0.5  0.38235294117647056  1.0000
  S   S20       1.0  0.0  0.5  0.38235294117647056  1.0000
  S   S21       1.0  0.5  0.5  0.4117647058823529  1.0000
  S   S22       1.0  0.5  0.0  0.38235294117647056  1.0000
  Ba  Ba9       1.0  0.0  0.0  0.47058823529411764  1.0000
  Zr  Zr8       1.0  0.5  0.5  0.4411764705882353  1.0000
  S   S23       1.0  0.0  0.5  0.4411764705882353  1.0000
  S   S24       1.0  0.5  0.5  0.47058823529411764  1.0000
  S   S25       1.0  0.5  0.0  0.4411764705882353  1.0000
  Ba  Ba10      1.0  0.0  0.0  0.5294117647058824  1.0000
  Zr  Zr9       1.0  0.5  0.5  0.5  1.0000
  S   S26       1.0  0.0  0.5  0.5  1.0000
  S   S27       1.0  0.5  0.5  0.5294117647058824  1.0000
  S   S28       1.0  0.5  0.0  0.5  1.0000
  Ba  Ba11      1.0  0.5  0.5  0.5588235294117647  1.0000
  S   S29       1.0  0.0  0.0  0.5588235294117647  1.0000
  Ba  Ba12      1.0  0.5  0.5  0.6176470588235294  1.0000
  Zr  Zr10      1.0  0.0  0.0  0.5882352941176471  1.0000
  S   S30       1.0  0.5  0.0  0.5882352941176471  1.0000
  S   S31       1.0  0.0  0.0  0.6176470588235294  1.0000
  S   S32       1.0  0.0  0.5  0.5882352941176471  1.0000
  Ba  Ba13      1.0  0.5  0.5  0.6764705882352942  1.0000
  Zr  Zr11      1.0  0.0  0.0  0.6470588235294118  1.0000
  S   S33       1.0  0.5  0.0  0.6470588235294118  1.0000
  S   S34       1.0  0.0  0.0  0.6764705882352942  1.0000
  S   S35       1.0  0.0  0.5  0.6470588235294118  1.0000
  Ba  Ba14      1.0  0.5  0.5  0.7352941176470588  1.0000
  Zr  Zr12      1.0  0.0  0.0  0.7058823529411764  1.0000
  S   S36       1.0  0.5  0.0  0.7058823529411764  1.0000
  S   S37       1.0  0.0  0.0  0.7352941176470588  1.0000
  S   S38       1.0  0.0  0.5  0.7058823529411764  1.0000
  Ba  Ba15      1.0  0.5  0.5  0.7941176470588235  1.0000
  Zr  Zr13      1.0  0.0  0.0  0.7647058823529411  1.0000
  S   S39       1.0  0.5  0.0  0.7647058823529411  1.0000
  S   S40       1.0  0.0  0.0  0.7941176470588235  1.0000
  S   S41       1.0  0.0  0.5  0.7647058823529411  1.0000
  Ba  Ba16      1.0  0.5  0.5  0.8529411764705882  1.0000
  Zr  Zr14      1.0  0.0  0.0  0.8235294117647058  1.0000
  S   S42       1.0  0.5  0.0  0.8235294117647058  1.0000
  S   S43       1.0  0.0  0.0  0.8529411764705882  1.0000
  S   S44       1.0  0.0  0.5  0.8235294117647058  1.0000
  Ba  Ba17      1.0  0.5  0.5  0.9117647058823529  1.0000
  Zr  Zr15      1.0  0.0  0.0  0.8823529411764706  1.0000
  S   S45       1.0  0.5  0.0  0.8823529411764706  1.0000
  S   S46       1.0  0.0  0.0  0.9117647058823529  1.0000
  S   S47       1.0  0.0  0.5  0.8823529411764706  1.0000
  Ba  Ba18      1.0  0.5  0.5  0.9705882352941176  1.0000
  Zr  Zr16      1.0  0.0  0.0  0.9411764705882353  1.0000
  S   S48       1.0  0.5  0.0  0.9411764705882353  1.0000
  S   S49       1.0  0.0  0.0  0.9705882352941176  1.0000
  S   S50       1.0  0.0  0.5  0.9411764705882353  1.0000
