data_image0
_chemical_formula_structural       BaZrS3BaSBaZrS3BaZrS3BaZrS3BaZrS3BaZrS3BaZrS3BaZrS3BaZrS3BaSBaZrS3BaZrS3BaZrS3BaZrS3BaZrS3BaZrS3BaZrS3
_chemical_formula_sum              "Ba18 Zr16 S50"
_cell_length_a       5
_cell_length_b       5
_cell_length_c       85
_cell_angle_alpha    90
_cell_angle_beta     90
_cell_angle_gamma    90

_space_group_name_H-M_alt    "P 1"
_space_group_IT_number       1

loop_
  _space_group_symop_operation_xyz
  'x, y, z'

loop_
  _atom_site_type_symbol
  _atom_site_label
  _atom_site_symmetry_multiplicity
  _atom_site_fract_x
  _atom_site_fract_y
  _atom_site_fract_z
  _atom_site_occupancy
  Ba  Ba1       1.0  0.50000  0.50000  0.02941  1.0000
  Zr  Zr1       1.0  0.00000  0.00000  0.00000  1.0000
  S   S1        1.0  0.50000  0.00000  0.00000  1.0000
  S   S2        1.0  0.00000  0.00000  0.02941  1.0000
  S   S3        1.0  0.00000  0.50000  0.00000  1.0000
  Ba  Ba2       1.0  0.00000  0.00000  0.05882  1.0000
  S   S4        1.0  0.50000  0.50000  0.05882  1.0000
  Ba  Ba3       1.0  0.00000  0.00000  0.11765  1.0000
  Zr  Zr2       1.0  0.50000  0.50000  0.08824  1.0000
  S   S5        1.0  0.00000  0.50000  0.08824  1.0000
  S   S6        1.0  0.50000  0.50000  0.11765  1.0000
  S   S7        1.0  0.50000  0.00000  0.08824  1.0000
  Ba  Ba4       1.0  0.00000  0.00000  0.17647  1.0000
  Zr  Zr3       1.0  0.50000  0.50000  0.14706  1.0000
  S   S8        1.0  0.00000  0.50000  0.14706  1.0000
  S   S9        1.0  0.50000  0.50000  0.17647  1.0000
  S   S10       1.0  0.50000  0.00000  0.14706  1.0000
  Ba  Ba5       1.0  0.00000  0.00000  0.23529  1.0000
  Zr  Zr4       1.0  0.50000  0.50000  0.20588  1.0000
  S   S11       1.0  0.00000  0.50000  0.20588  1.0000
  S   S12       1.0  0.50000  0.50000  0.23529  1.0000
  S   S13       1.0  0.50000  0.00000  0.20588  1.0000
  Ba  Ba6       1.0  0.00000  0.00000  0.29412  1.0000
  Zr  Zr5       1.0  0.50000  0.50000  0.26471  1.0000
  S   S14       1.0  0.00000  0.50000  0.26471  1.0000
  S   S15       1.0  0.50000  0.50000  0.29412  1.0000
  S   S16       1.0  0.50000  0.00000  0.26471  1.0000
  Ba  Ba7       1.0  0.00000  0.00000  0.35294  1.0000
  Zr  Zr6       1.0  0.50000  0.50000  0.32353  1.0000
  S   S17       1.0  0.00000  0.50000  0.32353  1.0000
  S   S18       1.0  0.50000  0.50000  0.35294  1.0000
  S   S19       1.0  0.50000  0.00000  0.32353  1.0000
  Ba  Ba8       1.0  0.00000  0.00000  0.41176  1.0000
  Zr  Zr7       1.0  0.50000  0.50000  0.38235  1.0000
  S   S20       1.0  0.00000  0.50000  0.38235  1.0000
  S   S21       1.0  0.50000  0.50000  0.41176  1.0000
  S   S22       1.0  0.50000  0.00000  0.38235  1.0000
  Ba  Ba9       1.0  0.00000  0.00000  0.47059  1.0000
  Zr  Zr8       1.0  0.50000  0.50000  0.44118  1.0000
  S   S23       1.0  0.00000  0.50000  0.44118  1.0000
  S   S24       1.0  0.50000  0.50000  0.47059  1.0000
  S   S25       1.0  0.50000  0.00000  0.44118  1.0000
  Ba  Ba10      1.0  0.00000  0.00000  0.52941  1.0000
  Zr  Zr9       1.0  0.50000  0.50000  0.50000  1.0000
  S   S26       1.0  0.00000  0.50000  0.50000  1.0000
  S   S27       1.0  0.50000  0.50000  0.52941  1.0000
  S   S28       1.0  0.50000  0.00000  0.50000  1.0000
  Ba  Ba11      1.0  0.50000  0.50000  0.55882  1.0000
  S   S29       1.0  0.00000  0.00000  0.55882  1.0000
  Ba  Ba12      1.0  0.50000  0.50000  0.61765  1.0000
  Zr  Zr10      1.0  0.00000  0.00000  0.58824  1.0000
  S   S30       1.0  0.50000  0.00000  0.58824  1.0000
  S   S31       1.0  0.00000  0.00000  0.61765  1.0000
  S   S32       1.0  0.00000  0.50000  0.58824  1.0000
  Ba  Ba13      1.0  0.50000  0.50000  0.67647  1.0000
  Zr  Zr11      1.0  0.00000  0.00000  0.64706  1.0000
  S   S33       1.0  0.50000  0.00000  0.64706  1.0000
  S   S34       1.0  0.00000  0.00000  0.67647  1.0000
  S   S35       1.0  0.00000  0.50000  0.64706  1.0000
  Ba  Ba14      1.0  0.50000  0.50000  0.73529  1.0000
  Zr  Zr12      1.0  0.00000  0.00000  0.70588  1.0000
  S   S36       1.0  0.50000  0.00000  0.70588  1.0000
  S   S37       1.0  0.00000  0.00000  0.73529  1.0000
  S   S38       1.0  0.00000  0.50000  0.70588  1.0000
  Ba  Ba15      1.0  0.50000  0.50000  0.79412  1.0000
  Zr  Zr13      1.0  0.00000  0.00000  0.76471  1.0000
  S   S39       1.0  0.50000  0.00000  0.76471  1.0000
  S   S40       1.0  0.00000  0.00000  0.79412  1.0000
  S   S41       1.0  0.00000  0.50000  0.76471  1.0000
  Ba  Ba16      1.0  0.50000  0.50000  0.85294  1.0000
  Zr  Zr14      1.0  0.00000  0.00000  0.82353  1.0000
  S   S42       1.0  0.50000  0.00000  0.82353  1.0000
  S   S43       1.0  0.00000  0.00000  0.85294  1.0000
  S   S44       1.0  0.00000  0.50000  0.82353  1.0000
  Ba  Ba17      1.0  0.50000  0.50000  0.91176  1.0000
  Zr  Zr15      1.0  0.00000  0.00000  0.88235  1.0000
  S   S45       1.0  0.50000  0.00000  0.88235  1.0000
  S   S46       1.0  0.00000  0.00000  0.91176  1.0000
  S   S47       1.0  0.00000  0.50000  0.88235  1.0000
  Ba  Ba18      1.0  0.50000  0.50000  0.97059  1.0000
  Zr  Zr16      1.0  0.00000  0.00000  0.94118  1.0000
  S   S48       1.0  0.50000  0.00000  0.94118  1.0000
  S   S49       1.0  0.00000  0.00000  0.97059  1.0000
  S   S50       1.0  0.00000  0.50000  0.94118  1.0000
