data_image0
_chemical_formula_structural       Ba2S4ZrBa2S4Zr
_chemical_formula_sum              "Ba4 S8 Zr2"
_cell_length_a       5.011
_cell_length_b       5.011
_cell_length_c       15.8993998956
_cell_angle_alpha    90.0
_cell_angle_beta     90.0
_cell_angle_gamma    90.0

_space_group_name_H-M_alt    "P 1"
_space_group_IT_number       1

loop_
  _space_group_symop_operation_xyz
  'x, y, z'

loop_
  _atom_site_type_symbol
  _atom_site_label
  _atom_site_symmetry_multiplicity
  _atom_site_fract_x
  _atom_site_fract_y
  _atom_site_fract_z
  _atom_site_occupancy
  Ba  Ba1       1.0  0.5  0.5  0.1420712200000001  1.0000
  Ba  Ba2       1.0  0.0  0.0  0.3579287799999999  1.0000
  S   S1        1.0  0.0  0.5  0.0  1.0000
  S   S2        1.0  0.5  0.0  0.0  1.0000
  S   S3        1.0  0.5  0.5  0.33664242999999994  1.0000
  S   S4        1.0  0.0  0.0  0.16335757000000006  1.0000
  Zr  Zr1       1.0  0.0  0.0  0.0  1.0000
  Ba  Ba3       1.0  0.0  0.0  0.6420712200000002  1.0000
  Ba  Ba4       1.0  0.5  0.5  0.85792878  1.0000
  S   S5        1.0  0.5  0.0  0.5  1.0000
  S   S6        1.0  0.0  0.5  0.5  1.0000
  S   S7        1.0  0.0  0.0  0.8366424299999999  1.0000
  S   S8        1.0  0.5  0.5  0.6633575700000001  1.0000
  Zr  Zr2       1.0  0.5  0.5  0.5  1.0000
