data_image0
_chemical_formula_structural       Ba3S7Zr2Ba3S7Zr2
_chemical_formula_sum              "Ba6 S14 Zr4"
_cell_length_a       5.043
_cell_length_b       5.043
_cell_length_c       25.8576002406
_cell_angle_alpha    90.0
_cell_angle_beta     90.0
_cell_angle_gamma    90.0

_space_group_name_H-M_alt    "P 1"
_space_group_IT_number       1

loop_
  _space_group_symop_operation_xyz
  'x, y, z'

loop_
  _atom_site_type_symbol
  _atom_site_label
  _atom_site_symmetry_multiplicity
  _atom_site_fract_x
  _atom_site_fract_y
  _atom_site_fract_z
  _atom_site_occupancy
  Ba  Ba1       1.0  0.0  0.0  0.0  1.0000
  Ba  Ba2       1.0  0.0  0.0  0.1807527799999998  1.0000
  Ba  Ba3       1.0  0.49999999999999994  0.49999999999999994  0.3192472200000002  1.0000
  S   S1        1.0  0.49999999999999994  0.49999999999999994  0.0  1.0000
  S   S2        1.0  0.0  0.0  0.30192810000000003  1.0000
  S   S3        1.0  0.49999999999999994  0.49999999999999994  0.19807189999999997  1.0000
  S   S4        1.0  0.0  0.49999999999999994  0.40390902999999995  1.0000
  S   S5        1.0  0.49999999999999994  0.0  0.40390902999999995  1.0000
  S   S6        1.0  0.49999999999999994  0.0  0.09609097000000005  1.0000
  S   S7        1.0  0.0  0.49999999999999994  0.09609097000000005  1.0000
  Zr  Zr1       1.0  0.0  0.0  0.39981081999999996  1.0000
  Zr  Zr2       1.0  0.49999999999999994  0.49999999999999994  0.10018918000000004  1.0000
  Ba  Ba4       1.0  0.49999999999999994  0.49999999999999994  0.5  1.0000
  Ba  Ba5       1.0  0.49999999999999994  0.49999999999999994  0.6807527799999997  1.0000
  Ba  Ba6       1.0  0.0  0.0  0.8192472200000003  1.0000
  S   S8        1.0  0.0  0.0  0.5  1.0000
  S   S9        1.0  0.49999999999999994  0.49999999999999994  0.8019281000000001  1.0000
  S   S10       1.0  0.0  0.0  0.6980719  1.0000
  S   S11       1.0  0.49999999999999994  0.0  0.90390903  1.0000
  S   S12       1.0  0.0  0.49999999999999994  0.90390903  1.0000
  S   S13       1.0  0.0  0.49999999999999994  0.5960909700000001  1.0000
  S   S14       1.0  0.49999999999999994  0.0  0.5960909700000001  1.0000
  Zr  Zr3       1.0  0.49999999999999994  0.49999999999999994  0.8998108199999999  1.0000
  Zr  Zr4       1.0  0.0  0.0  0.6001891800000001  1.0000
