data_image0
_chemical_formula_structural       Ba4S10Zr3Ba4S10Zr3
_chemical_formula_sum              "Ba8 S20 Zr6"
_cell_length_a       5.0483
_cell_length_b       5.0483
_cell_length_c       35.91739999745
_cell_angle_alpha    90.0
_cell_angle_beta     90.0
_cell_angle_gamma    90.0

_space_group_name_H-M_alt    "P 1"
_space_group_IT_number       1

loop_
  _space_group_symop_operation_xyz
  'x, y, z'

loop_
  _atom_site_type_symbol
  _atom_site_label
  _atom_site_symmetry_multiplicity
  _atom_site_fract_x
  _atom_site_fract_y
  _atom_site_fract_z
  _atom_site_occupancy
  Ba  Ba1       1.0  0.0  0.0  0.43251986999999986  1.0000
  Ba  Ba2       1.0  0.5  0.5  0.06748013000000014  1.0000
  Ba  Ba3       1.0  0.0  0.0  0.3002676799999998  1.0000
  Ba  Ba4       1.0  0.5  0.5  0.19973232000000019  1.0000
  S   S1        1.0  0.0  0.5  0.0  1.0000
  S   S2        1.0  0.5  0.0  0.0  1.0000
  S   S3        1.0  0.5  0.5  0.42945667000000015  1.0000
  S   S4        1.0  0.0  0.0  0.0705433299999999  1.0000
  S   S5        1.0  0.5  0.5  0.28687139999999994  1.0000
  S   S6        1.0  0.0  0.0  0.21312860000000006  1.0000
  S   S7        1.0  0.0  0.5  0.3605255  1.0000
  S   S8        1.0  0.5  0.0  0.3605255  1.0000
  S   S9        1.0  0.5  0.0  0.1394745  1.0000
  S   S10       1.0  0.0  0.5  0.1394745  1.0000
  Zr  Zr1       1.0  0.0  0.0  0.0  1.0000
  Zr  Zr2       1.0  0.5  0.5  0.3567975100000001  1.0000
  Zr  Zr3       1.0  0.0  0.0  0.1432024899999999  1.0000
  Ba  Ba5       1.0  0.5  0.5  0.93251987  1.0000
  Ba  Ba6       1.0  0.0  0.0  0.5674801300000002  1.0000
  Ba  Ba7       1.0  0.5  0.5  0.8002676799999998  1.0000
  Ba  Ba8       1.0  0.0  0.0  0.6997323200000002  1.0000
  S   S11       1.0  0.5  0.0  0.5  1.0000
  S   S12       1.0  0.0  0.5  0.5  1.0000
  S   S13       1.0  0.0  0.0  0.9294566700000001  1.0000
  S   S14       1.0  0.5  0.5  0.5705433299999999  1.0000
  S   S15       1.0  0.0  0.0  0.7868713999999999  1.0000
  S   S16       1.0  0.5  0.5  0.7131286000000001  1.0000
  S   S17       1.0  0.5  0.0  0.8605255  1.0000
  S   S18       1.0  0.0  0.5  0.8605255  1.0000
  S   S19       1.0  0.0  0.5  0.6394745000000001  1.0000
  S   S20       1.0  0.5  0.0  0.6394745000000001  1.0000
  Zr  Zr4       1.0  0.5  0.5  0.5  1.0000
  Zr  Zr5       1.0  0.0  0.0  0.85679751  1.0000
  Zr  Zr6       1.0  0.5  0.5  0.64320249  1.0000
