data_image0
_chemical_formula_structural       BaZrS3BaZrS3BaZrS3BaSBaZrS3BaZrS3BaZrS3BaS
_chemical_formula_sum              "Ba8 Zr6 S20"
_cell_length_a       4.97305
_cell_length_b       4.97305
_cell_length_c       35.3527
_cell_angle_alpha    90
_cell_angle_beta     90
_cell_angle_gamma    90

_space_group_name_H-M_alt    "P 1"
_space_group_IT_number       1

loop_
  _space_group_symop_operation_xyz
  'x, y, z'

loop_
  _atom_site_type_symbol
  _atom_site_label
  _atom_site_symmetry_multiplicity
  _atom_site_fract_x
  _atom_site_fract_y
  _atom_site_fract_z
  _atom_site_occupancy
  Ba  Ba1       1.0  0.50000  0.50000  0.93248  1.0000
  Zr  Zr1       1.0  0.50000  0.50000  0.35678  1.0000
  S   S1        1.0  0.50000  0.00000  0.86074  1.0000
  S   S2        1.0  0.00000  0.00000  0.92937  1.0000
  S   S3        1.0  0.00000  0.50000  0.86074  1.0000
  Ba  Ba2       1.0  0.50000  0.50000  0.06752  1.0000
  Zr  Zr2       1.0  0.00000  0.00000  0.00000  1.0000
  S   S4        1.0  0.50000  0.00000  0.00000  1.0000
  S   S5        1.0  0.00000  0.00000  0.07063  1.0000
  S   S6        1.0  0.00000  0.50000  0.00000  1.0000
  Ba  Ba3       1.0  0.50000  0.50000  0.19972  1.0000
  Zr  Zr3       1.0  0.00000  0.00000  0.14322  1.0000
  S   S7        1.0  0.50000  0.00000  0.13926  1.0000
  S   S8        1.0  0.00000  0.00000  0.21349  1.0000
  S   S9        1.0  0.00000  0.50000  0.13926  1.0000
  Ba  Ba4       1.0  0.00000  0.00000  0.30028  1.0000
  S   S10       1.0  0.50000  0.50000  0.28651  1.0000
  Ba  Ba5       1.0  0.00000  0.00000  0.43248  1.0000
  Zr  Zr4       1.0  0.00000  0.00000  0.85678  1.0000
  S   S11       1.0  0.00000  0.50000  0.36074  1.0000
  S   S12       1.0  0.50000  0.50000  0.42937  1.0000
  S   S13       1.0  0.50000  0.00000  0.36074  1.0000
  Ba  Ba6       1.0  0.00000  0.00000  0.56752  1.0000
  Zr  Zr5       1.0  0.50000  0.50000  0.50000  1.0000
  S   S14       1.0  0.00000  0.50000  0.50000  1.0000
  S   S15       1.0  0.50000  0.50000  0.57063  1.0000
  S   S16       1.0  0.50000  0.00000  0.50000  1.0000
  Ba  Ba7       1.0  0.00000  0.00000  0.69972  1.0000
  Zr  Zr6       1.0  0.50000  0.50000  0.64322  1.0000
  S   S17       1.0  0.00000  0.50000  0.63926  1.0000
  S   S18       1.0  0.50000  0.50000  0.71349  1.0000
  S   S19       1.0  0.50000  0.00000  0.63926  1.0000
  Ba  Ba8       1.0  0.50000  0.50000  0.80028  1.0000
  S   S20       1.0  0.00000  0.00000  0.78651  1.0000
