data_image0
_chemical_formula_structural       BaZrS3BaZrS3BaSBaZrS3BaZrS3BaS
_chemical_formula_sum              "Ba6 Zr4 S14"
_cell_length_a       5.043
_cell_length_b       5.043
_cell_length_c       25.215
_cell_angle_alpha    90.0
_cell_angle_beta     90.0
_cell_angle_gamma    90.0

_space_group_name_H-M_alt    "P 1"
_space_group_IT_number       1

loop_
  _space_group_symop_operation_xyz
  'x, y, z'

loop_
  _atom_site_type_symbol
  _atom_site_label
  _atom_site_symmetry_multiplicity
  _atom_site_fract_x
  _atom_site_fract_y
  _atom_site_fract_z
  _atom_site_occupancy
  Ba  Ba1       1.0  0.49999999999999994  0.49999999999999994  0.1  1.0000
  Zr  Zr1       1.0  0.0  0.0  0.0  1.0000
  S   S1        1.0  0.49999999999999994  0.0  0.0  1.0000
  S   S2        1.0  0.0  0.0  0.1  1.0000
  S   S3        1.0  0.0  0.49999999999999994  0.0  1.0000
  Ba  Ba2       1.0  0.49999999999999994  0.49999999999999994  0.30000000000000004  1.0000
  Zr  Zr2       1.0  0.0  0.0  0.2  1.0000
  S   S4        1.0  0.49999999999999994  0.0  0.2  1.0000
  S   S5        1.0  0.0  0.0  0.30000000000000004  1.0000
  S   S6        1.0  0.0  0.49999999999999994  0.2  1.0000
  Ba  Ba3       1.0  0.0  0.0  0.4  1.0000
  S   S7        1.0  0.49999999999999994  0.49999999999999994  0.4  1.0000
  Ba  Ba4       1.0  0.9999999999999999  0.9999999999999999  0.6000000000000001  1.0000
  Zr  Zr3       1.0  0.49999999999999994  0.49999999999999994  0.5  1.0000
  S   S8        1.0  0.9999999999999999  0.49999999999999994  0.5  1.0000
  S   S9        1.0  0.49999999999999994  0.49999999999999994  0.6000000000000001  1.0000
  S   S10       1.0  0.49999999999999994  0.9999999999999999  0.5  1.0000
  Ba  Ba5       1.0  0.9999999999999999  0.9999999999999999  0.8  1.0000
  Zr  Zr4       1.0  0.49999999999999994  0.49999999999999994  0.7000000000000001  1.0000
  S   S11       1.0  0.9999999999999999  0.49999999999999994  0.7000000000000001  1.0000
  S   S12       1.0  0.49999999999999994  0.49999999999999994  0.8  1.0000
  S   S13       1.0  0.49999999999999994  0.9999999999999999  0.7000000000000001  1.0000
  Ba  Ba6       1.0  0.49999999999999994  0.49999999999999994  0.9000000000000001  1.0000
  S   S14       1.0  0.9999999999999999  0.9999999999999999  0.9000000000000001  1.0000
