data_image0
_chemical_formula_structural       BaZrS3BaZrS3BaZrS3BaSBaZrS3BaZrS3BaZrS3BaS
_chemical_formula_sum              "Ba8 Zr6 S20"
_cell_length_a       5.048
_cell_length_b       5.048
_cell_length_c       35.336
_cell_angle_alpha    90.0
_cell_angle_beta     90.0
_cell_angle_gamma    90.0

_space_group_name_H-M_alt    "P 1"
_space_group_IT_number       1

loop_
  _space_group_symop_operation_xyz
  'x, y, z'

loop_
  _atom_site_type_symbol
  _atom_site_label
  _atom_site_symmetry_multiplicity
  _atom_site_fract_x
  _atom_site_fract_y
  _atom_site_fract_z
  _atom_site_occupancy
  Ba  Ba1       1.0  0.5  0.5  0.07142857142857142  1.0000
  Zr  Zr1       1.0  0.0  0.0  0.0  1.0000
  S   S1        1.0  0.5  0.0  0.0  1.0000
  S   S2        1.0  0.0  0.0  0.07142857142857142  1.0000
  S   S3        1.0  0.0  0.5  0.0  1.0000
  Ba  Ba2       1.0  0.5  0.5  0.2142857142857143  1.0000
  Zr  Zr2       1.0  0.0  0.0  0.14285714285714285  1.0000
  S   S4        1.0  0.5  0.0  0.14285714285714285  1.0000
  S   S5        1.0  0.0  0.0  0.2142857142857143  1.0000
  S   S6        1.0  0.0  0.5  0.14285714285714285  1.0000
  Ba  Ba3       1.0  0.5  0.5  0.35714285714285715  1.0000
  Zr  Zr3       1.0  0.0  0.0  0.2857142857142857  1.0000
  S   S7        1.0  0.5  0.0  0.2857142857142857  1.0000
  S   S8        1.0  0.0  0.0  0.35714285714285715  1.0000
  S   S9        1.0  0.0  0.5  0.2857142857142857  1.0000
  Ba  Ba4       1.0  0.0  0.0  0.4285714285714286  1.0000
  S   S10       1.0  0.5  0.5  0.4285714285714286  1.0000
  Ba  Ba5       1.0  0.0  0.0  0.5714285714285714  1.0000
  Zr  Zr4       1.0  0.5  0.5  0.5  1.0000
  S   S11       1.0  0.0  0.5  0.5  1.0000
  S   S12       1.0  0.5  0.5  0.5714285714285714  1.0000
  S   S13       1.0  0.5  0.0  0.5  1.0000
  Ba  Ba6       1.0  0.0  0.0  0.7142857142857143  1.0000
  Zr  Zr5       1.0  0.5  0.5  0.6428571428571429  1.0000
  S   S14       1.0  0.0  0.5  0.6428571428571429  1.0000
  S   S15       1.0  0.5  0.5  0.7142857142857143  1.0000
  S   S16       1.0  0.5  0.0  0.6428571428571429  1.0000
  Ba  Ba7       1.0  0.0  0.0  0.8571428571428573  1.0000
  Zr  Zr6       1.0  0.5  0.5  0.7857142857142858  1.0000
  S   S17       1.0  0.0  0.5  0.7857142857142858  1.0000
  S   S18       1.0  0.5  0.5  0.8571428571428573  1.0000
  S   S19       1.0  0.5  0.0  0.7857142857142858  1.0000
  Ba  Ba8       1.0  0.5  0.5  0.9285714285714287  1.0000
  S   S20       1.0  0.0  0.0  0.9285714285714287  1.0000
